Version 4
SHEET 1 880 680
WIRE 192 -256 192 -288
WIRE 192 -128 192 -176
WIRE 192 -128 -32 -128
WIRE 192 -80 192 -128
WIRE -32 0 -32 -128
WIRE 192 80 192 0
WIRE 368 80 192 80
WIRE 496 80 432 80
WIRE 192 112 192 80
WIRE 208 160 192 160
WIRE -288 192 -400 192
WIRE -144 192 -208 192
WIRE -32 192 -32 80
WIRE -32 192 -80 192
WIRE 144 192 -32 192
WIRE 192 224 192 208
WIRE 208 224 208 160
WIRE 208 224 192 224
WIRE 192 288 192 224
WIRE 384 288 192 288
WIRE 384 304 384 288
WIRE -32 336 -32 192
WIRE 192 336 192 288
WIRE 384 416 384 368
WIRE -32 480 -32 416
WIRE 192 480 192 416
FLAG 496 80 0ut
IOPIN 496 80 Out
FLAG 192 -288 0
FLAG -32 480 0
FLAG -400 192 0
FLAG 192 480 0
FLAG 384 416 0
SYMBOL res 176 -96 R0
SYMATTR InstName RD
SYMATTR Value 1200k
SYMBOL nmos4 144 112 R0
WINDOW 0 101 29 Left 2
WINDOW 3 79 5 Left 2
SYMATTR InstName M1
SYMATTR Value2 l=0.18u w=1.8u
SYMBOL voltage 192 -160 R180
WINDOW 123 0 0 Left 0
WINDOW 39 0 0 Left 0
SYMATTR InstName V1
SYMATTR Value 5
SYMBOL voltage -192 192 R90
WINDOW 0 -32 56 VBottom 2
WINDOW 3 32 56 VTop 2
WINDOW 123 60 56 VTop 2
WINDOW 39 0 0 Left 0
SYMATTR InstName Signal1
SYMATTR Value SINE(0 10m 10k)
SYMATTR Value2 AC 1
SYMBOL cap 432 64 R90
WINDOW 0 0 32 VBottom 2
WINDOW 3 32 32 VTop 2
SYMATTR InstName C1
SYMATTR Value 100µ
SYMBOL res -48 -16 R0
SYMATTR InstName R1
SYMATTR Value 10Meg
SYMBOL res -48 320 R0
SYMATTR InstName R2
SYMATTR Value 300k
SYMBOL cap -80 176 R90
WINDOW 0 0 32 VBottom 2
WINDOW 3 32 32 VTop 2
SYMATTR InstName C2
SYMATTR Value 100µ
SYMBOL res 176 320 R0
SYMATTR InstName RS
SYMATTR Value 1k
SYMBOL cap 368 304 R0
SYMATTR InstName BypassCapacitor
SYMATTR Value 1µ
TEXT 504 -208 Left 2 !.ac lin 1000 1 100k
TEXT 512 -144 Left 2 !;tran 0 1m 0 1u
